925
New structure
 C  -12.350000  -21.390827    0.000000
 C  -13.585000  -19.251745    0.000000
 C  -14.820001  -17.112661    0.000000
 C  -16.055000  -14.973579    0.000000
 C  -17.290001  -12.834496    0.000000
 C  -18.525000  -10.695414    0.000000
 C  -19.760000   -8.556331    0.000000
 C  -20.995001   -6.417248    0.000000
 C  -22.230000   -4.278165    0.000000
 C  -23.465000   -2.139083    0.000000
 C  -24.700001    0.000000    0.000000
 C  -25.934999    2.139083    0.000000
 C  -27.170000    4.278165    0.000000
 C  -28.405001    6.417248    0.000000
 C  -29.639999    8.556331    0.000000
 C  -30.875000   10.695414    0.000000
 C  -32.110001   12.834496    0.000000
 C  -33.345001   14.973579    0.000000
 C  -34.580002   17.112661    0.000000
 C  -35.814999   19.251745    0.000000
 C  -37.049999   21.390827    0.000000
 C  -38.285000   23.529911    0.000000
 C   -9.880000  -21.390827    0.000000
 C  -11.115000  -19.251745    0.000000
 C  -12.350000  -17.112661    0.000000
 C  -13.585000  -14.973579    0.000000
 C  -14.820001  -12.834496    0.000000
 C  -16.055000  -10.695414    0.000000
 C  -17.290001   -8.556331    0.000000
 C  -18.525000   -6.417248    0.000000
 C  -19.760000   -4.278165    0.000000
 C  -20.995001   -2.139083    0.000000
 C  -22.230000    0.000000    0.000000
 C  -23.465000    2.139083    0.000000
 C  -24.700001    4.278165    0.000000
 C  -25.934999    6.417248    0.000000
 C  -27.170000    8.556331    0.000000
 C  -28.405001   10.695414    0.000000
 C  -29.639999   12.834496    0.000000
 C  -30.875000   14.973579    0.000000
 C  -32.110001   17.112661    0.000000
 C  -33.345001   19.251745    0.000000
 C  -34.580002   21.390827    0.000000
 C  -35.814999   23.529911    0.000000
 C   -7.410000  -21.390827    0.000000
 C   -8.645000  -19.251745    0.000000
 C   -9.880000  -17.112661    0.000000
 C  -11.115000  -14.973579    0.000000
 C  -12.350000  -12.834496    0.000000
 C  -13.585000  -10.695414    0.000000
 C  -14.820001   -8.556331    0.000000
 C  -16.055000   -6.417248    0.000000
 C  -17.290001   -4.278165    0.000000
 C  -18.525000   -2.139083    0.000000
 C  -19.760000    0.000000    0.000000
 C  -20.995001    2.139083    0.000000
 C  -22.230000    4.278165    0.000000
 C  -23.465000    6.417248    0.000000
 C  -24.700001    8.556331    0.000000
 C  -25.934999   10.695414    0.000000
 C  -27.170000   12.834496    0.000000
 C  -28.405001   14.973579    0.000000
 C  -29.639999   17.112661    0.000000
 C  -30.875000   19.251745    0.000000
 C  -32.110001   21.390827    0.000000
 C  -33.345001   23.529911    0.000000
 C   -4.940000  -21.390827    0.000000
 C   -6.175000  -19.251745    0.000000
 C   -7.410000  -17.112661    0.000000
 C   -8.645000  -14.973579    0.000000
 C   -9.880000  -12.834496    0.000000
 C  -11.115000  -10.695414    0.000000
 C  -12.350000   -8.556331    0.000000
 C  -13.585000   -6.417248    0.000000
 C  -14.820000   -4.278165    0.000000
 C  -16.055000   -2.139083    0.000000
 C  -17.290001    0.000000    0.000000
 C  -18.525000    2.139083    0.000000
 C  -19.760000    4.278165    0.000000
 C  -20.995001    6.417248    0.000000
 C  -22.230000    8.556331    0.000000
 C  -23.465000   10.695414    0.000000
 C  -24.700001   12.834496    0.000000
 C  -25.934999   14.973579    0.000000
 C  -27.170000   17.112661    0.000000
 C  -28.405001   19.251745    0.000000
 C  -29.639999   21.390827    0.000000
 C  -30.875000   23.529911    0.000000
 C   -2.470000  -21.390827    0.000000
 C   -3.705000  -19.251745    0.000000
 C   -4.940000  -17.112661    0.000000
 C   -6.175000  -14.973579    0.000000
 C   -7.410000  -12.834496    0.000000
 C   -8.645000  -10.695414    0.000000
 C   -9.880000   -8.556331    0.000000
 C  -11.115000   -6.417248    0.000000
 C  -12.350000   -4.278165    0.000000
 C  -13.585000   -2.139083    0.000000
 C  -14.820000    0.000000    0.000000
 C  -16.055000    2.139083    0.000000
 C  -17.290001    4.278165    0.000000
 C  -18.525000    6.417248    0.000000
 C  -19.760000    8.556331    0.000000
 C  -20.995001   10.695414    0.000000
 C  -22.230000   12.834496    0.000000
 C  -23.465000   14.973579    0.000000
 C  -24.700001   17.112661    0.000000
 C  -25.934999   19.251745    0.000000
 C  -27.170000   21.390827    0.000000
 C  -28.405001   23.529911    0.000000
 C   -0.000000  -21.390827    0.000000
 C   -1.235000  -19.251745    0.000000
 C   -2.470000  -17.112661    0.000000
 C   -3.705000  -14.973579    0.000000
 C   -4.940000  -12.834496    0.000000
 C   -6.175000  -10.695414    0.000000
 C   -7.410000   -8.556331    0.000000
 C   -8.645000   -6.417248    0.000000
 C   -9.880000   -4.278165    0.000000
 C  -11.115000   -2.139083    0.000000
 C  -12.350000    0.000000    0.000000
 C  -13.585000    2.139083    0.000000
 C  -14.820000    4.278165    0.000000
 C  -16.055000    6.417248    0.000000
 C  -17.290001    8.556331    0.000000
 C  -18.525000   10.695414    0.000000
 C  -19.760000   12.834496    0.000000
 C  -20.995001   14.973579    0.000000
 C  -22.230000   17.112661    0.000000
 C  -23.465000   19.251745    0.000000
 C  -24.700001   21.390827    0.000000
 C  -25.934999   23.529911    0.000000
 C    2.470000  -21.390827    0.000000
 C    1.235000  -19.251745    0.000000
 C   -0.000000  -17.112661    0.000000
 C   -1.235000  -14.973579    0.000000
 C   -2.470000  -12.834496    0.000000
 C   -3.705000  -10.695414    0.000000
 C   -4.940000   -8.556331    0.000000
 C   -6.175000   -6.417248    0.000000
 C   -7.410000   -4.278165    0.000000
 C   -8.645000   -2.139083    0.000000
 C   -9.880000    0.000000    0.000000
 C  -11.115000    2.139083    0.000000
 C  -12.350000    4.278165    0.000000
 C  -13.585000    6.417248    0.000000
 C  -14.820000    8.556331    0.000000
 C  -16.055000   10.695414    0.000000
 C  -17.290001   12.834496    0.000000
 C  -18.525000   14.973579    0.000000
 C  -19.760000   17.112661    0.000000
 C  -20.995001   19.251745    0.000000
 C  -22.230000   21.390827    0.000000
 C  -23.465000   23.529911    0.000000
 C    4.940000  -21.390827    0.000000
 C    3.705000  -19.251745    0.000000
 C    2.470000  -17.112661    0.000000
 C    1.235000  -14.973579    0.000000
 C   -0.000000  -12.834496    0.000000
 C   -1.235000  -10.695414    0.000000
 C   -2.470000   -8.556331    0.000000
 C   -3.705000   -6.417248    0.000000
 C   -4.940000   -4.278165    0.000000
 C   -6.175000   -2.139083    0.000000
 C   -7.410000    0.000000    0.000000
 C   -8.645000    2.139083    0.000000
 C   -9.880000    4.278165    0.000000
 C  -11.115000    6.417248    0.000000
 C  -12.350000    8.556331    0.000000
 C  -13.585000   10.695414    0.000000
 C  -14.820000   12.834496    0.000000
 C  -16.055000   14.973579    0.000000
 C  -17.290001   17.112661    0.000000
 C  -18.525000   19.251745    0.000000
 C  -19.760000   21.390827    0.000000
 C  -20.995001   23.529911    0.000000
 C    7.410000  -21.390827    0.000000
 C    6.175000  -19.251745    0.000000
 C    4.940000  -17.112661    0.000000
 C    3.705000  -14.973579    0.000000
 C    2.470000  -12.834496    0.000000
 C    1.235000  -10.695414    0.000000
 C   -0.000000   -8.556331    0.000000
 C   -1.235000   -6.417248    0.000000
 C   -2.470000   -4.278165    0.000000
 C   -3.705000   -2.139083    0.000000
 C   -4.940000    0.000000    0.000000
 C   -6.175000    2.139083    0.000000
 C   -7.410000    4.278165    0.000000
 C   -8.645000    6.417248    0.000000
 C   -9.880000    8.556331    0.000000
 C  -11.115000   10.695414    0.000000
 C  -12.350000   12.834496    0.000000
 C  -13.585000   14.973579    0.000000
 C  -14.820000   17.112661    0.000000
 C  -16.055000   19.251745    0.000000
 C  -17.290001   21.390827    0.000000
 C  -18.525000   23.529911    0.000000
 C    9.880000  -21.390827    0.000000
 C    8.645000  -19.251745    0.000000
 C    7.410000  -17.112661    0.000000
 C    6.175000  -14.973579    0.000000
 C    4.940000  -12.834496    0.000000
 C    3.705000  -10.695414    0.000000
 C    2.470000   -8.556331    0.000000
 C    1.235000   -6.417248    0.000000
 C   -0.000000   -4.278165    0.000000
 C   -1.235000   -2.139083    0.000000
 C   -2.470000    0.000000    0.000000
 C   -3.705000    2.139083    0.000000
 C   -4.940000    4.278165    0.000000
 C   -6.175000    6.417248    0.000000
 C   -7.410000    8.556331    0.000000
 C   -8.645000   10.695414    0.000000
 C   -9.880000   12.834496    0.000000
 C  -11.115000   14.973579    0.000000
 C  -12.350000   17.112661    0.000000
 C  -13.585000   19.251745    0.000000
 C  -14.820000   21.390827    0.000000
 C  -16.055000   23.529911    0.000000
 C   12.350000  -21.390827    0.000000
 C   11.115000  -19.251745    0.000000
 C    9.880000  -17.112661    0.000000
 C    8.645000  -14.973579    0.000000
 C    7.410000  -12.834496    0.000000
 C    6.175000  -10.695414    0.000000
 C    4.940000   -8.556331    0.000000
 C    3.705000   -6.417248    0.000000
 C    2.470000   -4.278165    0.000000
 C    1.235000   -2.139083    0.000000
 C    0.000000    0.000000    0.000000
 C   -1.235000    2.139083    0.000000
 C   -2.470000    4.278165    0.000000
 C   -3.705000    6.417248    0.000000
 C   -4.940000    8.556331    0.000000
 C   -6.175000   10.695414    0.000000
 C   -7.410000   12.834496    0.000000
 C   -8.645000   14.973579    0.000000
 C   -9.880000   17.112661    0.000000
 C  -11.115000   19.251745    0.000000
 C  -12.350000   21.390827    0.000000
 C  -13.585000   23.529911    0.000000
 C   14.820000  -21.390827    0.000000
 C   13.585000  -19.251745    0.000000
 C   12.350000  -17.112661    0.000000
 C   11.115000  -14.973579    0.000000
 C    9.880000  -12.834496    0.000000
 C    8.645000  -10.695414    0.000000
 C    7.410000   -8.556331    0.000000
 C    6.175000   -6.417248    0.000000
 C    4.940000   -4.278165    0.000000
 C    3.705000   -2.139083    0.000000
 C    2.470000    0.000000    0.000000
 C    1.235000    2.139083    0.000000
 C    0.000000    4.278165    0.000000
 C   -1.235000    6.417248    0.000000
 C   -2.470000    8.556331    0.000000
 C   -3.705000   10.695414    0.000000
 C   -4.940000   12.834496    0.000000
 C   -6.175000   14.973579    0.000000
 C   -7.410000   17.112661    0.000000
 C   -8.645000   19.251745    0.000000
 C   -9.880000   21.390827    0.000000
 C  -11.115000   23.529911    0.000000
 C   17.290001  -21.390827    0.000000
 C   16.055000  -19.251745    0.000000
 C   14.820000  -17.112661    0.000000
 C   13.585000  -14.973579    0.000000
 C   12.350000  -12.834496    0.000000
 C   11.115000  -10.695414    0.000000
 C    9.880000   -8.556331    0.000000
 C    8.645000   -6.417248    0.000000
 C    7.410000   -4.278165    0.000000
 C    6.175000   -2.139083    0.000000
 C    4.940000    0.000000    0.000000
 C    3.705000    2.139083    0.000000
 C    2.470000    4.278165    0.000000
 C    1.235000    6.417248    0.000000
 C    0.000000    8.556331    0.000000
 C   -1.235000   10.695414    0.000000
 C   -2.470000   12.834496    0.000000
 C   -3.705000   14.973579    0.000000
 C   -4.940000   17.112661    0.000000
 C   -6.175000   19.251745    0.000000
 C   -7.410000   21.390827    0.000000
 C   -8.645000   23.529911    0.000000
 C   19.760000  -21.390827    0.000000
 C   18.525000  -19.251745    0.000000
 C   17.290001  -17.112661    0.000000
 C   16.055000  -14.973579    0.000000
 C   14.820000  -12.834496    0.000000
 C   13.585000  -10.695414    0.000000
 C   12.350000   -8.556331    0.000000
 C   11.115000   -6.417248    0.000000
 C    9.880000   -4.278165    0.000000
 C    8.645000   -2.139083    0.000000
 C    7.410000    0.000000    0.000000
 C    6.175000    2.139083    0.000000
 C    4.940000    4.278165    0.000000
 C    3.705000    6.417248    0.000000
 C    2.470000    8.556331    0.000000
 C    1.235000   10.695414    0.000000
 C    0.000000   12.834496    0.000000
 C   -1.235000   14.973579    0.000000
 C   -2.470000   17.112661    0.000000
 C   -3.705000   19.251745    0.000000
 C   -4.940000   21.390827    0.000000
 C   -6.175000   23.529911    0.000000
 C   22.230000  -21.390827    0.000000
 C   20.995001  -19.251745    0.000000
 C   19.760000  -17.112661    0.000000
 C   18.525000  -14.973579    0.000000
 C   17.290001  -12.834496    0.000000
 C   16.055000  -10.695414    0.000000
 C   14.820000   -8.556331    0.000000
 C   13.585000   -6.417248    0.000000
 C   12.350000   -4.278165    0.000000
 C   11.115000   -2.139083    0.000000
 C    9.880000    0.000000    0.000000
 C    8.645000    2.139083    0.000000
 C    7.410000    4.278165    0.000000
 C    6.175000    6.417248    0.000000
 C    4.940000    8.556331    0.000000
 C    3.705000   10.695414    0.000000
 C    2.470000   12.834496    0.000000
 C    1.235000   14.973579    0.000000
 C    0.000000   17.112661    0.000000
 C   -1.235000   19.251745    0.000000
 C   -2.470000   21.390827    0.000000
 C   -3.705000   23.529911    0.000000
 C   24.700001  -21.390827    0.000000
 C   23.465000  -19.251745    0.000000
 C   22.230000  -17.112661    0.000000
 C   20.995001  -14.973579    0.000000
 C   19.760000  -12.834496    0.000000
 C   18.525000  -10.695414    0.000000
 C   17.290001   -8.556331    0.000000
 C   16.055000   -6.417248    0.000000
 C   14.820000   -4.278165    0.000000
 C   13.585000   -2.139083    0.000000
 C   12.350000    0.000000    0.000000
 C   11.115000    2.139083    0.000000
 C    9.880000    4.278165    0.000000
 C    8.645000    6.417248    0.000000
 C    7.410000    8.556331    0.000000
 C    6.175000   10.695414    0.000000
 C    4.940000   12.834496    0.000000
 C    3.705000   14.973579    0.000000
 C    2.470000   17.112661    0.000000
 C    1.235000   19.251745    0.000000
 C    0.000000   21.390827    0.000000
 C   -1.235000   23.529911    0.000000
 C   27.170000  -21.390827    0.000000
 C   25.934999  -19.251745    0.000000
 C   24.700001  -17.112661    0.000000
 C   23.465000  -14.973579    0.000000
 C   22.230000  -12.834496    0.000000
 C   20.995001  -10.695414    0.000000
 C   19.760000   -8.556331    0.000000
 C   18.525000   -6.417248    0.000000
 C   17.290001   -4.278165    0.000000
 C   16.055000   -2.139083    0.000000
 C   14.820000    0.000000    0.000000
 C   13.585000    2.139083    0.000000
 C   12.350000    4.278165    0.000000
 C   11.115000    6.417248    0.000000
 C    9.880000    8.556331    0.000000
 C    8.645000   10.695414    0.000000
 C    7.410000   12.834496    0.000000
 C    6.175000   14.973579    0.000000
 C    4.940000   17.112661    0.000000
 C    3.705000   19.251745    0.000000
 C    2.470000   21.390827    0.000000
 C    1.235000   23.529911    0.000000
 C   29.639999  -21.390827    0.000000
 C   28.405001  -19.251745    0.000000
 C   27.170000  -17.112661    0.000000
 C   25.934999  -14.973579    0.000000
 C   24.700001  -12.834496    0.000000
 C   23.465000  -10.695414    0.000000
 C   22.230000   -8.556331    0.000000
 C   20.995001   -6.417248    0.000000
 C   19.760000   -4.278165    0.000000
 C   18.525000   -2.139083    0.000000
 C   17.290001    0.000000    0.000000
 C   16.055000    2.139083    0.000000
 C   14.820000    4.278165    0.000000
 C   13.585000    6.417248    0.000000
 C   12.350000    8.556331    0.000000
 C   11.115000   10.695414    0.000000
 C    9.880000   12.834496    0.000000
 C    8.645000   14.973579    0.000000
 C    7.410000   17.112661    0.000000
 C    6.175000   19.251745    0.000000
 C    4.940000   21.390827    0.000000
 C    3.705000   23.529911    0.000000
 C   32.110001  -21.390827    0.000000
 C   30.875000  -19.251745    0.000000
 C   29.639999  -17.112661    0.000000
 C   28.405001  -14.973579    0.000000
 C   27.170000  -12.834496    0.000000
 C   25.934999  -10.695414    0.000000
 C   24.700001   -8.556331    0.000000
 C   23.465000   -6.417248    0.000000
 C   22.230000   -4.278165    0.000000
 C   20.995001   -2.139083    0.000000
 C   19.760000    0.000000    0.000000
 C   18.525000    2.139083    0.000000
 C   17.290001    4.278165    0.000000
 C   16.055000    6.417248    0.000000
 C   14.820001    8.556331    0.000000
 C   13.585000   10.695414    0.000000
 C   12.350000   12.834496    0.000000
 C   11.115000   14.973579    0.000000
 C    9.880000   17.112661    0.000000
 C    8.645000   19.251745    0.000000
 C    7.410000   21.390827    0.000000
 C    6.175000   23.529911    0.000000
 C   34.580002  -21.390827    0.000000
 C   33.345001  -19.251745    0.000000
 C   32.110001  -17.112661    0.000000
 C   30.875000  -14.973579    0.000000
 C   29.639999  -12.834496    0.000000
 C   28.405001  -10.695414    0.000000
 C   27.170000   -8.556331    0.000000
 C   25.934999   -6.417248    0.000000
 C   24.700001   -4.278165    0.000000
 C   23.465000   -2.139083    0.000000
 C   22.230000    0.000000    0.000000
 C   20.995001    2.139083    0.000000
 C   19.760000    4.278165    0.000000
 C   18.525000    6.417248    0.000000
 C   17.290001    8.556331    0.000000
 C   16.055000   10.695414    0.000000
 C   14.820001   12.834496    0.000000
 C   13.585000   14.973579    0.000000
 C   12.350000   17.112661    0.000000
 C   11.115000   19.251745    0.000000
 C    9.880000   21.390827    0.000000
 C    8.645000   23.529911    0.000000
 C   37.049999  -21.390827    0.000000
 C   35.814999  -19.251745    0.000000
 C   34.580002  -17.112661    0.000000
 C   33.345001  -14.973579    0.000000
 C   32.110001  -12.834496    0.000000
 C   30.875000  -10.695414    0.000000
 C   29.639999   -8.556331    0.000000
 C   28.405001   -6.417248    0.000000
 C   27.170000   -4.278165    0.000000
 C   25.934999   -2.139083    0.000000
 C   24.700001    0.000000    0.000000
 C   23.465000    2.139083    0.000000
 C   22.230000    4.278165    0.000000
 C   20.995001    6.417248    0.000000
 C   19.760000    8.556331    0.000000
 C   18.525000   10.695414    0.000000
 C   17.290001   12.834496    0.000000
 C   16.055000   14.973579    0.000000
 C   14.820001   17.112661    0.000000
 C   13.585000   19.251745    0.000000
 C   12.350000   21.390827    0.000000
 C   11.115000   23.529911    0.000000
 C   39.520000  -21.390827    0.000000
 C   38.285000  -19.251745    0.000000
 C   37.049999  -17.112661    0.000000
 C   35.814999  -14.973579    0.000000
 C   34.580002  -12.834496    0.000000
 C   33.345001  -10.695414    0.000000
 C   32.110001   -8.556331    0.000000
 C   30.875000   -6.417248    0.000000
 C   29.639999   -4.278165    0.000000
 C   28.405001   -2.139083    0.000000
 C   27.170000    0.000000    0.000000
 C   25.934999    2.139083    0.000000
 C   24.700001    4.278165    0.000000
 C   23.465000    6.417248    0.000000
 C   22.230000    8.556331    0.000000
 C   20.995001   10.695414    0.000000
 C   19.760000   12.834496    0.000000
 C   18.525000   14.973579    0.000000
 C   17.290001   17.112661    0.000000
 C   16.055000   19.251745    0.000000
 C   14.820001   21.390827    0.000000
 C   13.585000   23.529911    0.000000
 C  -12.350001  -19.964771    0.000000
 C  -13.585001  -17.825689    0.000000
 C  -14.820001  -15.686607    0.000000
 C  -16.055000  -13.547524    0.000000
 C  -17.290001  -11.408442    0.000000
 C  -18.525002   -9.269359    0.000000
 C  -19.760000   -7.130276    0.000000
 C  -20.995001   -4.991193    0.000000
 C  -22.230001   -2.852110    0.000000
 C  -23.465000   -0.713028    0.000000
 C  -24.700001    1.426055    0.000000
 C  -25.935001    3.565138    0.000000
 C  -27.170002    5.704221    0.000000
 C  -28.405001    7.843304    0.000000
 C  -29.640001    9.982386    0.000000
 C  -30.875000   12.121469    0.000000
 C  -32.110001   14.260551    0.000000
 C  -33.345001   16.399633    0.000000
 C  -34.580002   18.538717    0.000000
 C  -35.815002   20.677801    0.000000
 C  -37.050003   22.816883    0.000000
 C   -9.880001  -19.964771    0.000000
 C  -11.115002  -17.825689    0.000000
 C  -12.350000  -15.686607    0.000000
 C  -13.585001  -13.547524    0.000000
 C  -14.820001  -11.408442    0.000000
 C  -16.055000   -9.269359    0.000000
 C  -17.290001   -7.130276    0.000000
 C  -18.525002   -4.991193    0.000000
 C  -19.760000   -2.852110    0.000000
 C  -20.995001   -0.713028    0.000000
 C  -22.230001    1.426055    0.000000
 C  -23.465002    3.565138    0.000000
 C  -24.700001    5.704221    0.000000
 C  -25.935001    7.843304    0.000000
 C  -27.170000    9.982386    0.000000
 C  -28.405001   12.121469    0.000000
 C  -29.640001   14.260551    0.000000
 C  -30.875000   16.399633    0.000000
 C  -32.110001   18.538717    0.000000
 C  -33.345001   20.677801    0.000000
 C  -34.580002   22.816883    0.000000
 C   -7.410000  -19.964771    0.000000
 C   -8.645000  -17.825689    0.000000
 C   -9.879999  -15.686607    0.000000
 C  -11.115000  -13.547524    0.000000
 C  -12.349999  -11.408442    0.000000
 C  -13.585000   -9.269359    0.000000
 C  -14.820000   -7.130276    0.000000
 C  -16.055000   -4.991193    0.000000
 C  -17.289999   -2.852110    0.000000
 C  -18.525000   -0.713028    0.000000
 C  -19.760000    1.426055    0.000000
 C  -20.995001    3.565138    0.000000
 C  -22.230000    5.704221    0.000000
 C  -23.465000    7.843304    0.000000
 C  -24.699999    9.982386    0.000000
 C  -25.934999   12.121469    0.000000
 C  -27.170000   14.260551    0.000000
 C  -28.405001   16.399633    0.000000
 C  -29.639999   18.538717    0.000000
 C  -30.875000   20.677801    0.000000
 C  -32.110001   22.816883    0.000000
 C   -4.940000  -19.964771    0.000000
 C   -6.175000  -17.825689    0.000000
 C   -7.409999  -15.686607    0.000000
 C   -8.645000  -13.547524    0.000000
 C   -9.879999  -11.408442    0.000000
 C  -11.115000   -9.269359    0.000000
 C  -12.349999   -7.130276    0.000000
 C  -13.585000   -4.991193    0.000000
 C  -14.820000   -2.852110    0.000000
 C  -16.055000   -0.713028    0.000000
 C  -17.289999    1.426055    0.000000
 C  -18.525000    3.565138    0.000000
 C  -19.760000    5.704221    0.000000
 C  -20.995001    7.843304    0.000000
 C  -22.230000    9.982386    0.000000
 C  -23.465000   12.121469    0.000000
 C  -24.699999   14.260551    0.000000
 C  -25.934999   16.399633    0.000000
 C  -27.170000   18.538717    0.000000
 C  -28.405001   20.677801    0.000000
 C  -29.639999   22.816883    0.000000
 C   -2.470000  -19.964771    0.000000
 C   -3.705000  -17.825689    0.000000
 C   -4.940000  -15.686607    0.000000
 C   -6.175000  -13.547524    0.000000
 C   -7.409999  -11.408442    0.000000
 C   -8.645000   -9.269359    0.000000
 C   -9.880000   -7.130276    0.000000
 C  -11.115000   -4.991193    0.000000
 C  -12.349999   -2.852110    0.000000
 C  -13.585000   -0.713028    0.000000
 C  -14.820000    1.426055    0.000000
 C  -16.055000    3.565138    0.000000
 C  -17.289999    5.704221    0.000000
 C  -18.525000    7.843304    0.000000
 C  -19.760000    9.982386    0.000000
 C  -20.994999   12.121469    0.000000
 C  -22.230000   14.260551    0.000000
 C  -23.465000   16.399633    0.000000
 C  -24.700001   18.538717    0.000000
 C  -25.934999   20.677801    0.000000
 C  -27.170000   22.816883    0.000000
 C   -0.000000  -19.964771    0.000000
 C   -1.235000  -17.825689    0.000000
 C   -2.470000  -15.686607    0.000000
 C   -3.704999  -13.547524    0.000000
 C   -4.940000  -11.408442    0.000000
 C   -6.175000   -9.269359    0.000000
 C   -7.410000   -7.130276    0.000000
 C   -8.645000   -4.991193    0.000000
 C   -9.880000   -2.852110    0.000000
 C  -11.115000   -0.713028    0.000000
 C  -12.349999    1.426055    0.000000
 C  -13.585000    3.565138    0.000000
 C  -14.820000    5.704221    0.000000
 C  -16.055000    7.843304    0.000000
 C  -17.289999    9.982386    0.000000
 C  -18.525000   12.121469    0.000000
 C  -19.760000   14.260551    0.000000
 C  -20.994999   16.399633    0.000000
 C  -22.230000   18.538717    0.000000
 C  -23.465000   20.677801    0.000000
 C  -24.700001   22.816883    0.000000
 C    2.470000  -19.964771    0.000000
 C    1.234999  -17.825689    0.000000
 C   -0.000000  -15.686607    0.000000
 C   -1.235000  -13.547524    0.000000
 C   -2.470000  -11.408442    0.000000
 C   -3.705000   -9.269359    0.000000
 C   -4.940001   -7.130276    0.000000
 C   -6.175000   -4.991193    0.000000
 C   -7.410000   -2.852110    0.000000
 C   -8.645000   -0.713028    0.000000
 C   -9.880000    1.426055    0.000000
 C  -11.115001    3.565138    0.000000
 C  -12.350000    5.704221    0.000000
 C  -13.585000    7.843304    0.000000
 C  -14.820000    9.982386    0.000000
 C  -16.055000   12.121469    0.000000
 C  -17.290001   14.260551    0.000000
 C  -18.525000   16.399633    0.000000
 C  -19.760000   18.538717    0.000000
 C  -20.995001   20.677801    0.000000
 C  -22.230001   22.816883    0.000000
 C    4.940000  -19.964771    0.000000
 C    3.704999  -17.825689    0.000000
 C    2.470000  -15.686607    0.000000
 C    1.235000  -13.547524    0.000000
 C   -0.000000  -11.408442    0.000000
 C   -1.235000   -9.269359    0.000000
 C   -2.470000   -7.130276    0.000000
 C   -3.705000   -4.991193    0.000000
 C   -4.940001   -2.852110    0.000000
 C   -6.175000   -0.713028    0.000000
 C   -7.410000    1.426055    0.000000
 C   -8.645000    3.565138    0.000000
 C   -9.880000    5.704221    0.000000
 C  -11.115001    7.843304    0.000000
 C  -12.350000    9.982386    0.000000
 C  -13.585000   12.121469    0.000000
 C  -14.820000   14.260551    0.000000
 C  -16.055000   16.399633    0.000000
 C  -17.290001   18.538717    0.000000
 C  -18.525002   20.677801    0.000000
 C  -19.760000   22.816883    0.000000
 C    7.410000  -19.964771    0.000000
 C    6.175000  -17.825689    0.000000
 C    4.940001  -15.686607    0.000000
 C    3.705000  -13.547524    0.000000
 C    2.470000  -11.408442    0.000000
 C    1.235000   -9.269359    0.000000
 C   -0.000000   -7.130276    0.000000
 C   -1.235000   -4.991193    0.000000
 C   -2.470000   -2.852110    0.000000
 C   -3.705000   -0.713028    0.000000
 C   -4.940000    1.426055    0.000000
 C   -6.175000    3.565138    0.000000
 C   -7.410000    5.704221    0.000000
 C   -8.645000    7.843304    0.000000
 C   -9.880000    9.982386    0.000000
 C  -11.115000   12.121469    0.000000
 C  -12.349999   14.260551    0.000000
 C  -13.585000   16.399633    0.000000
 C  -14.820001   18.538717    0.000000
 C  -16.055000   20.677801    0.000000
 C  -17.290001   22.816883    0.000000
 C    9.880000  -19.964771    0.000000
 C    8.645000  -17.825689    0.000000
 C    7.410000  -15.686607    0.000000
 C    6.175000  -13.547524    0.000000
 C    4.940001  -11.408442    0.000000
 C    3.705000   -9.269359    0.000000
 C    2.470000   -7.130276    0.000000
 C    1.235000   -4.991193    0.000000
 C   -0.000000   -2.852110    0.000000
 C   -1.235000   -0.713028    0.000000
 C   -2.470000    1.426055    0.000000
 C   -3.705000    3.565138    0.000000
 C   -4.940000    5.704221    0.000000
 C   -6.175000    7.843304    0.000000
 C   -7.410000    9.982386    0.000000
 C   -8.645000   12.121469    0.000000
 C   -9.880000   14.260551    0.000000
 C  -11.115000   16.399633    0.000000
 C  -12.350000   18.538717    0.000000
 C  -13.585000   20.677801    0.000000
 C  -14.820001   22.816883    0.000000
 C   12.349999  -19.964771    0.000000
 C   11.115000  -17.825689    0.000000
 C    9.880000  -15.686607    0.000000
 C    8.645000  -13.547524    0.000000
 C    7.410000  -11.408442    0.000000
 C    6.175000   -9.269359    0.000000
 C    4.940000   -7.130276    0.000000
 C    3.705000   -4.991193    0.000000
 C    2.470000   -2.852110    0.000000
 C    1.235000   -0.713028    0.000000
 C    0.000000    1.426055    0.000000
 C   -1.235000    3.565138    0.000000
 C   -2.470000    5.704221    0.000000
 C   -3.705000    7.843304    0.000000
 C   -4.940000    9.982386    0.000000
 C   -6.175000   12.121469    0.000000
 C   -7.410000   14.260551    0.000000
 C   -8.645000   16.399633    0.000000
 C   -9.880000   18.538717    0.000000
 C  -11.115001   20.677801    0.000000
 C  -12.350000   22.816883    0.000000
 C   14.820000  -19.964771    0.000000
 C   13.585000  -17.825689    0.000000
 C   12.350000  -15.686607    0.000000
 C   11.115001  -13.547524    0.000000
 C    9.880000  -11.408442    0.000000
 C    8.645000   -9.269359    0.000000
 C    7.410000   -7.130276    0.000000
 C    6.175000   -4.991193    0.000000
 C    4.940000   -2.852110    0.000000
 C    3.705000   -0.713028    0.000000
 C    2.470000    1.426055    0.000000
 C    1.235000    3.565138    0.000000
 C    0.000000    5.704221    0.000000
 C   -1.235000    7.843304    0.000000
 C   -2.470000    9.982386    0.000000
 C   -3.705000   12.121469    0.000000
 C   -4.940000   14.260551    0.000000
 C   -6.175000   16.399633    0.000000
 C   -7.410000   18.538717    0.000000
 C   -8.645000   20.677801    0.000000
 C   -9.880000   22.816883    0.000000
 C   17.289999  -19.964771    0.000000
 C   16.055000  -17.825689    0.000000
 C   14.820000  -15.686607    0.000000
 C   13.585000  -13.547524    0.000000
 C   12.350000  -11.408442    0.000000
 C   11.115000   -9.269359    0.000000
 C    9.880000   -7.130276    0.000000
 C    8.645000   -4.991193    0.000000
 C    7.410000   -2.852110    0.000000
 C    6.175000   -0.713028    0.000000
 C    4.940000    1.426055    0.000000
 C    3.705000    3.565138    0.000000
 C    2.470000    5.704221    0.000000
 C    1.235000    7.843304    0.000000
 C    0.000000    9.982386    0.000000
 C   -1.235000   12.121469    0.000000
 C   -2.470000   14.260551    0.000000
 C   -3.705000   16.399633    0.000000
 C   -4.940001   18.538717    0.000000
 C   -6.175001   20.677801    0.000000
 C   -7.410001   22.816883    0.000000
 C   19.760000  -19.964771    0.000000
 C   18.525000  -17.825689    0.000000
 C   17.290001  -15.686607    0.000000
 C   16.055000  -13.547524    0.000000
 C   14.820000  -11.408442    0.000000
 C   13.585000   -9.269359    0.000000
 C   12.349999   -7.130276    0.000000
 C   11.115000   -4.991193    0.000000
 C    9.880000   -2.852110    0.000000
 C    8.645000   -0.713028    0.000000
 C    7.410000    1.426055    0.000000
 C    6.175000    3.565138    0.000000
 C    4.940000    5.704221    0.000000
 C    3.705000    7.843304    0.000000
 C    2.470000    9.982386    0.000000
 C    1.235000   12.121469    0.000000
 C    0.000000   14.260551    0.000000
 C   -1.235000   16.399633    0.000000
 C   -2.470001   18.538717    0.000000
 C   -3.705001   20.677801    0.000000
 C   -4.940001   22.816883    0.000000
 C   22.230000  -19.964771    0.000000
 C   20.995001  -17.825689    0.000000
 C   19.760000  -15.686607    0.000000
 C   18.525002  -13.547524    0.000000
 C   17.290001  -11.408442    0.000000
 C   16.055000   -9.269359    0.000000
 C   14.820001   -7.130276    0.000000
 C   13.585000   -4.991193    0.000000
 C   12.350000   -2.852110    0.000000
 C   11.115001   -0.713028    0.000000
 C    9.880000    1.426055    0.000000
 C    8.645000    3.565138    0.000000
 C    7.410000    5.704221    0.000000
 C    6.175000    7.843304    0.000000
 C    4.940001    9.982386    0.000000
 C    3.705001   12.121469    0.000000
 C    2.470001   14.260551    0.000000
 C    1.235001   16.399633    0.000000
 C    0.000000   18.538717    0.000000
 C   -1.235000   20.677801    0.000000
 C   -2.470000   22.816883    0.000000
 C   24.700001  -19.964771    0.000000
 C   23.465000  -17.825689    0.000000
 C   22.230001  -15.686607    0.000000
 C   20.995001  -13.547524    0.000000
 C   19.760000  -11.408442    0.000000
 C   18.525002   -9.269359    0.000000
 C   17.290001   -7.130276    0.000000
 C   16.055000   -4.991193    0.000000
 C   14.820001   -2.852110    0.000000
 C   13.585001   -0.713028    0.000000
 C   12.350000    1.426055    0.000000
 C   11.115001    3.565138    0.000000
 C    9.880000    5.704221    0.000000
 C    8.645000    7.843304    0.000000
 C    7.410001    9.982386    0.000000
 C    6.175001   12.121469    0.000000
 C    4.940001   14.260551    0.000000
 C    3.705001   16.399633    0.000000
 C    2.470000   18.538717    0.000000
 C    1.235000   20.677801    0.000000
 C    0.000000   22.816883    0.000000
 C   27.170000  -19.964771    0.000000
 C   25.934999  -17.825689    0.000000
 C   24.700001  -15.686607    0.000000
 C   23.465000  -13.547524    0.000000
 C   22.230001  -11.408442    0.000000
 C   20.995001   -9.269359    0.000000
 C   19.760000   -7.130276    0.000000
 C   18.525000   -4.991193    0.000000
 C   17.290001   -2.852110    0.000000
 C   16.055000   -0.713028    0.000000
 C   14.820001    1.426055    0.000000
 C   13.585000    3.565138    0.000000
 C   12.350000    5.704221    0.000000
 C   11.115001    7.843304    0.000000
 C    9.880001    9.982386    0.000000
 C    8.645000   12.121469    0.000000
 C    7.410001   14.260551    0.000000
 C    6.175001   16.399633    0.000000
 C    4.940000   18.538717    0.000000
 C    3.705000   20.677801    0.000000
 C    2.470000   22.816883    0.000000
 C   29.639999  -19.964771    0.000000
 C   28.405001  -17.825689    0.000000
 C   27.170000  -15.686607    0.000000
 C   25.935001  -13.547524    0.000000
 C   24.700001  -11.408442    0.000000
 C   23.465000   -9.269359    0.000000
 C   22.230001   -7.130276    0.000000
 C   20.995001   -4.991193    0.000000
 C   19.760000   -2.852110    0.000000
 C   18.525002   -0.713028    0.000000
 C   17.290001    1.426055    0.000000
 C   16.055000    3.565138    0.000000
 C   14.820001    5.704221    0.000000
 C   13.585000    7.843304    0.000000
 C   12.350000    9.982386    0.000000
 C   11.115001   12.121469    0.000000
 C    9.880001   14.260551    0.000000
 C    8.645000   16.399633    0.000000
 C    7.410000   18.538717    0.000000
 C    6.175000   20.677801    0.000000
 C    4.940000   22.816883    0.000000
 C   32.110001  -19.964771    0.000000
 C   30.875000  -17.825689    0.000000
 C   29.639999  -15.686607    0.000000
 C   28.405001  -13.547524    0.000000
 C   27.170000  -11.408442    0.000000
 C   25.934999   -9.269359    0.000000
 C   24.699999   -7.130276    0.000000
 C   23.465000   -4.991193    0.000000
 C   22.230000   -2.852110    0.000000
 C   20.994999   -0.713028    0.000000
 C   19.760000    1.426055    0.000000
 C   18.525000    3.565138    0.000000
 C   17.289999    5.704221    0.000000
 C   16.054998    7.843304    0.000000
 C   14.820000    9.982386    0.000000
 C   13.585000   12.121469    0.000000
 C   12.349999   14.260551    0.000000
 C   11.115000   16.399633    0.000000
 C    9.879999   18.538717    0.000000
 C    8.644999   20.677801    0.000000
 C    7.409999   22.816883    0.000000
 C   34.579998  -19.964771    0.000000
 C   33.344997  -17.825689    0.000000
 C   32.110001  -15.686607    0.000000
 C   30.875000  -13.547524    0.000000
 C   29.639999  -11.408442    0.000000
 C   28.405001   -9.269359    0.000000
 C   27.170000   -7.130276    0.000000
 C   25.934999   -4.991193    0.000000
 C   24.699999   -2.852110    0.000000
 C   23.465000   -0.713028    0.000000
 C   22.230000    1.426055    0.000000
 C   20.994999    3.565138    0.000000
 C   19.760000    5.704221    0.000000
 C   18.525000    7.843304    0.000000
 C   17.289999    9.982386    0.000000
 C   16.055000   12.121469    0.000000
 C   14.820000   14.260551    0.000000
 C   13.585000   16.399633    0.000000
 C   12.349999   18.538717    0.000000
 C   11.114999   20.677801    0.000000
 C    9.879999   22.816883    0.000000
 C   37.049999  -19.964771    0.000000
 C   35.814999  -17.825689    0.000000
 C   34.579998  -15.686607    0.000000
 C   33.345001  -13.547524    0.000000
 C   32.110001  -11.408442    0.000000
 C   30.875000   -9.269359    0.000000
 C   29.639999   -7.130276    0.000000
 C   28.404999   -4.991193    0.000000
 C   27.170000   -2.852110    0.000000
 C   25.934999   -0.713028    0.000000
 C   24.699999    1.426055    0.000000
 C   23.465000    3.565138    0.000000
 C   22.230000    5.704221    0.000000
 C   20.994999    7.843304    0.000000
 C   19.760000    9.982386    0.000000
 C   18.525000   12.121469    0.000000
 C   17.289999   14.260551    0.000000
 C   16.055000   16.399633    0.000000
 C   14.819999   18.538717    0.000000
 C   13.584999   20.677801    0.000000
 C   12.349999   22.816883    0.000000
